
#======================================================================
# CRYSTAL DATA
#----------------------------------------------------------------------
data_VESTA_phase_1

_chemical_name_common                  'delta4_P1bar'
_cell_length_a                         8.005000
_cell_length_b                         8.050000
_cell_length_c                         13.100000
_cell_angle_alpha                      71.900002
_cell_angle_beta                       72.099998
_cell_angle_gamma                      90.000000
_cell_volume                           759.287134
_space_group_name_H-M_alt              'P -1'
_space_group_IT_number                 2

loop_
_space_group_symop_operation_xyz
   'x, y, z'
   '-x, -y, -z'

loop_
   _atom_site_label
   _atom_site_occupancy
   _atom_site_fract_x
   _atom_site_fract_y
   _atom_site_fract_z
   _atom_site_adp_type
   _atom_site_U_iso_or_equiv
   _atom_site_type_symbol
   Al1        1.0     0.381500     0.261400     0.999600    Uiso  ? Al
   Al2        1.0     0.688800     0.085500     0.581900    Uiso  ? Al
   Al3        1.0     0.955100     0.821400     0.574000    Uiso  ? Al
   Al4        1.0     0.454100     0.070400     0.832500    Uiso  ? Al
   Al5        1.0     0.962700     0.573200     0.835400    Uiso  ? Al
   Al6        1.0     0.799000     0.413300     0.659600    Uiso  ? Al
   Al7        1.0     0.284700     0.900800     0.671700    Uiso  ? Al
   Al8        1.0     0.616900     0.736300     0.501900    Uiso  ? Al
   Al9        1.0     0.875400     0.996100     0.743900    Uiso  ? Al
   Al10       1.0     0.133000     0.242300     0.750600    Uiso  ? Al
   Al11       1.0     0.385900     0.480200     0.750200    Uiso  ? Al
   Al12       1.0     0.623600     0.727700     0.754600    Uiso  ? Al
   Al13       1.0     0.775800     0.172200     0.914700    Uiso  ? Al
   Al14       1.0     1.027100     0.895900     0.926900    Uiso  ? Al
   Al15       1.0     0.287200     0.649900     0.923000    Uiso  ? Al
   Al16       1.0     0.787400     0.428600     0.421000    Uiso  ? Al
   O1         1.0     0.564700     0.410100     0.406500    Uiso  ? O
   O2         1.0     0.200400     0.600200     0.079200    Uiso  ? O
   O3         1.0     0.722600     0.098000     0.077100    Uiso  ? O
   O4         1.0     0.623400     0.510000     0.735400    Uiso  ? O
   O5         1.0     0.454100     0.840000     0.084900    Uiso  ? O
   O6         1.0     0.800800     0.172500     0.419900    Uiso  ? O
   O7         1.0     0.278200     0.681500     0.423800    Uiso  ? O
   O8         1.0     0.615800     0.264500     0.243700    Uiso  ? O
   O9         1.0     0.934300     0.055300     0.584500    Uiso  ? O
   O10        1.0     1.028700     0.411900     0.408300    Uiso  ? O
   O11        1.0     0.453200     0.075900     0.586300    Uiso  ? O
   O12        1.0     0.131200     0.245500     0.253300    Uiso  ? O
   O13        1.0     0.642900     0.754900     0.236600    Uiso  ? O
   O14        1.0     0.795000     0.916900     0.911700    Uiso  ? O
   O15        1.0     0.287600     0.165200     0.414800    Uiso  ? O
   O16        1.0     0.982000     0.861100     0.085200    Uiso  ? O
   O17        1.0     1.109800     0.001400     0.752600    Uiso  ? O
   O18        1.0     0.305500     0.431100     0.909600    Uiso  ? O
   O19        1.0     0.786700     0.663100     0.408900    Uiso  ? O
   O20        1.0     0.861900     0.516500     0.252400    Uiso  ? O
   O21        1.0     0.364000     0.009100     0.258300    Uiso  ? O
   O22        1.0     1.057800     0.681900     0.905800    Uiso  ? O
   O23        1.0     1.120000     0.769400     0.246500    Uiso  ? O
   O24        1.0     0.468600     0.316500     0.092700    Uiso  ? O
